src/MATLAB/logs/opf_solved_case.m
function mpc = opf_solved_case
%OPF_SOLVED_CASE

%% MATPOWER Case Format : Version 2
mpc.version = '2';

%%-----  Power Flow Data  -----%%
%% system MVA base
mpc.baseMVA = 100;

%% bus data
%	bus_i	type	Pd	Qd	Gs	Bs	area	Vm	Va	baseKV	zone	Vmax	Vmin	lam_P	lam_Q	mu_Vmax	mu_Vmin
mpc.bus = [
	1	1	97.6	44.2	0	0	2	1	-14.1081397	345	1	1.06	0.94	13.5169	0.0000	0.0000	0.0000;
	2	1	0	0	0	0	2	1	-5.08709856	345	1	1.06	0.94	13.5169	0.0000	0.0000	0.0000;
	3	1	322	2.4	0	0	2	1	-8.98737786	345	1	1.06	0.94	13.5169	0.0000	0.0000	0.0000;
	4	1	500	184	0	0	1	1	-10.6111635	345	1	1.06	0.94	13.5169	0.0000	0.0000	0.0000;
	5	1	0	0	0	0	1	1	-9.88270526	345	1	1.06	0.94	13.5169	0.0000	0.0000	0.0000;
	6	1	0	0	0	0	1	1	-9.1214881	345	1	1.06	0.94	13.5169	0.0000	0.0000	0.0000;
	7	1	233.8	84	0	0	1	1	-11.8008949	345	1	1.06	0.94	13.5169	0.0000	0.0000	0.0000;
	8	1	522	176.6	0	0	1	1	-12.5243936	345	1	1.06	0.94	13.5169	0.0000	0.0000	0.0000;
	9	1	6.5	-66.6	0	0	1	1	-15.9388948	345	1	1.06	0.94	13.5169	0.0000	0.0000	0.0000;
	10	1	0	0	0	0	1	1	-6.38401527	345	1	1.06	0.94	13.5169	0.0000	0.0000	0.0000;
	11	1	0	0	0	0	1	1	-7.32440748	345	1	1.06	0.94	13.5169	0.0000	0.0000	0.0000;
	12	1	8.53	88	0	0	1	1	-7.30438397	345	1	1.06	0.94	13.5169	0.0000	0.0000	0.0000;
	13	1	0	0	0	0	1	1	-7.07176159	345	1	1.06	0.94	13.5169	0.0000	0.0000	0.0000;
	14	1	0	0	0	0	1	1	-8.63315457	345	1	1.06	0.94	13.5169	0.0000	0.0000	0.0000;
	15	1	320	153	0	0	3	1	-8.66048219	345	1	1.06	0.94	13.5169	0.0000	0.0000	0.0000;
	16	1	329	32.3	0	0	3	1	-6.94886291	345	1	1.06	0.94	13.5169	0.0000	0.0000	0.0000;
	17	1	0	0	0	0	2	1	-8.19281228	345	1	1.06	0.94	13.5169	0.0000	0.0000	0.0000;
	18	1	158	30	0	0	2	1	-8.95506105	345	1	1.06	0.94	13.5169	0.0000	0.0000	0.0000;
	19	1	0	0	0	0	3	1	-1.58597795	345	1	1.06	0.94	13.5169	0.0000	0.0000	0.0000;
	20	1	680	103	0	0	3	1	-2.94595057	345	1	1.06	0.94	13.5169	0.0000	0.0000	0.0000;
	21	1	274	115	0	0	3	1	-4.22396271	345	1	1.06	0.94	13.5169	0.0000	0.0000	0.0000;
	22	1	0	0	0	0	3	1	0.799725813	345	1	1.06	0.94	13.5169	0.0000	0.0000	0.0000;
	23	1	247.5	84.6	0	0	3	1	0.609626879	345	1	1.06	0.94	13.5169	0.0000	0.0000	0.0000;
	24	1	308.6	-92.2	0	0	3	1	-6.75123849	345	1	1.06	0.94	13.5169	0.0000	0.0000	0.0000;
	25	1	224	47.2	0	0	2	1	-4.23441004	345	1	1.06	0.94	13.5169	0.0000	0.0000	0.0000;
	26	1	139	17	0	0	2	1	-7.32409311	345	1	1.06	0.94	13.5169	0.0000	0.0000	0.0000;
	27	1	281	75.5	0	0	2	1	-9.00266723	345	1	1.06	0.94	13.5169	0.0000	0.0000	0.0000;
	28	1	206	27.6	0	0	3	1	-5.67319505	345	1	1.06	0.94	13.5169	0.0000	0.0000	0.0000;
	29	1	283.5	26.9	0	0	3	1	-3.36503353	345	1	1.06	0.94	13.5169	0.0000	0.0000	0.0000;
	30	2	0	0	0	0	2	1	1.76622874	345	1	1.06	0.94	13.5169	0.0000	0.0000	0.0000;
	31	3	9.2	4.6	0	0	1	1	0	345	1	1.06	0.94	13.5169	0.0000	0.0000	0.0000;
	32	2	0	0	0	0	1	1	1.18872207	345	1	1.06	0.94	13.5169	0.0000	0.0000	0.0000;
	33	2	0	0	0	0	3	1	3.7186945	345	1	1.06	0.94	13.5169	0.0000	0.0000	0.0000;
	34	2	0	0	0	0	3	1	2.29317551	345	1	1.06	0.94	13.5169	0.0000	0.0000	0.0000;
	35	2	0	0	0	0	3	1	6.21423301	345	1	1.06	0.94	13.5169	0.0000	0.0000	0.0000;
	36	2	0	0	0	0	3	1	9.64860906	345	1	1.06	0.94	13.5169	0.0000	0.0000	0.0000;
	37	2	0	0	0	0	2	1	3.26262812	345	1	1.06	0.94	13.5169	0.0000	0.0000	0.0000;
	38	2	0	0	0	0	3	1	2.5417016	345	1	1.06	0.94	13.5169	0.0000	0.0000	0.0000;
	39	2	1104	250	0	0	1	1	-18.197374	345	1	1.06	0.94	13.5169	0.0000	0.0000	0.0000;
];

%% generator data
%	bus	Pg	Qg	Qmax	Qmin	Vg	mBase	status	Pmax	Pmin	Pc1	Pc2	Qc1min	Qc1max	Qc2min	Qc2max	ramp_agc	ramp_10	ramp_30	ramp_q	apf	mu_Pmax	mu_Pmin	mu_Qmax	mu_Qmin
mpc.gen = [
	30	660.846	161.762	400	140	1.0499	100	1	1040	0	0	0	0	0	0	0	0	0	0	0	0	0.0000	0.0000	0.0000	0.0000;
	31	646	221.574	300	-100	0.982	100	1	646	0	0	0	0	0	0	0	0	0	0	0	0	0.2969	0.0000	0.0000	0.0000;
	32	660.846	206.965	300	150	0.9841	100	1	725	0	0	0	0	0	0	0	0	0	0	0	0	0.0000	0.0000	0.0000	0.0000;
	33	652	108.293	250	0	0.9972	100	1	652	0	0	0	0	0	0	0	0	0	0	0	0	0.1769	0.0000	0.0000	0.0000;
	34	508	166.688	167	0	1.0123	100	1	508	0	0	0	0	0	0	0	0	0	0	0	0	3.0569	0.0000	0.0000	0.0000;
	35	660.846	210.661	300	-100	1.0494	100	1	687	0	0	0	0	0	0	0	0	0	0	0	0	0.0000	0.0000	0.0000	0.0000;
	36	580	100.165	240	0	1.0636	100	1	580	0	0	0	0	0	0	0	0	0	0	0	0	1.6169	0.0000	0.0000	0.0000;
	37	564	-1.36945	250	0	1.0275	100	1	564	0	0	0	0	0	0	0	0	0	0	0	0	1.9369	0.0000	0.0000	0.0000;
	38	660.846	21.7327	300	-150	1.0265	100	1	865	0	0	0	0	0	0	0	0	0	0	0	0	0.0000	0.0000	0.0000	0.0000;
	39	660.846	78.4674	300	-100	1.03	100	1	1100	0	0	0	0	0	0	0	0	0	0	0	0	0.0000	0.0000	0.0000	0.0000;
];

%% branch data
%	fbus	tbus	r	x	b	rateA	rateB	rateC	ratio	angle	status	angmin	angmax	Pf	Qf	Pt	Qt	mu_Sf	mu_St	mu_angmin	mu_angmax
mpc.branch = [
	1	2	0.0035	0.0411	0.6987	600	600	600	1	0	1	-360	360	-383.0824	0.0000	383.0824	0.0000	0.0000	0.0000	0.0000	0.0000;
	1	39	0.001	0.025	0.75	1000	1000	1000	1	0	1	-360	360	285.4824	0.0000	-285.4824	0.0000	0.0000	0.0000	0.0000	0.0000;
	2	3	0.0013	0.0151	0.2572	500	500	500	1	0	1	-360	360	450.8127	0.0000	-450.8127	0.0000	0.0000	0.0000	0.0000	0.0000;
	2	25	0.007	0.0086	0.146	500	500	500	1	0	1	-360	360	-173.0491	0.0000	173.0491	0.0000	0.0000	0.0000	0.0000	0.0000;
	2	30	0	0.0181	0	900	900	2500	1	0	1	-360	360	-660.8460	0.0000	660.8460	0.0000	0.0000	0.0000	0.0000	0.0000;
	3	4	0.0013	0.0213	0.2214	500	500	500	1	0	1	-360	360	133.0535	0.0000	-133.0535	0.0000	0.0000	0.0000	0.0000	0.0000;
	3	18	0.0011	0.0133	0.2138	500	500	500	1	0	1	-360	360	-4.2409	0.0000	4.2409	0.0000	0.0000	0.0000	0.0000	0.0000;
	4	5	0.0008	0.0128	0.1342	600	600	600	1	0	1	-360	360	-99.3281	0.0000	99.3281	0.0000	0.0000	0.0000	0.0000	0.0000;
	4	14	0.0008	0.0129	0.1382	500	500	500	1	0	1	-360	360	-267.6184	0.0000	267.6184	0.0000	0.0000	0.0000	0.0000	0.0000;
	5	6	0.0002	0.0026	0.0434	1200	1200	1200	1	0	1	-360	360	-510.9902	0.0000	510.9902	0.0000	0.0000	0.0000	0.0000	0.0000;
	5	8	0.0008	0.0112	0.1476	900	900	900	1	0	1	-360	360	411.6621	0.0000	-411.6621	0.0000	0.0000	0.0000	0.0000	0.0000;
	6	7	0.0006	0.0092	0.113	900	900	900	1	0	1	-360	360	508.3095	0.0000	-508.3095	0.0000	0.0000	0.0000	0.0000	0.0000;
	6	11	0.0007	0.0082	0.1389	480	480	480	1	0	1	-360	360	-382.4997	0.0000	382.4997	0.0000	0.0000	0.0000	0.0000	0.0000;
	6	31	0	0.025	0	1800	1800	1800	1	0	1	-360	360	-636.8000	0.0000	636.8000	0.0000	0.0000	0.0000	0.0000	0.0000;
	7	8	0.0004	0.0046	0.078	900	900	900	1	0	1	-360	360	274.5095	0.0000	-274.5095	0.0000	0.0000	0.0000	0.0000	0.0000;
	8	9	0.0023	0.0363	0.3804	900	900	900	1	0	1	-360	360	164.1716	0.0000	-164.1716	0.0000	0.0000	0.0000	0.0000	0.0000;
	9	39	0.001	0.025	1.2	900	900	900	1	0	1	-360	360	157.6716	0.0000	-157.6716	0.0000	0.0000	0.0000	0.0000	0.0000;
	10	11	0.0004	0.0043	0.0729	600	600	600	1	0	1	-360	360	381.6963	0.0000	-381.6963	0.0000	0.0000	0.0000	0.0000	0.0000;
	10	13	0.0004	0.0043	0.0729	600	600	600	1	0	1	-360	360	279.1497	0.0000	-279.1497	0.0000	0.0000	0.0000	0.0000	0.0000;
	10	32	0	0.02	0	900	900	2500	1	0	1	-360	360	-660.8460	0.0000	660.8460	0.0000	0.0000	0.0000	0.0000	0.0000;
	12	11	0.0016	0.0435	0	500	500	500	1	0	1	-360	360	0.8034	0.0000	-0.8034	0.0000	0.0000	0.0000	0.0000	0.0000;
	12	13	0.0016	0.0435	0	500	500	500	1	0	1	-360	360	-9.3334	0.0000	9.3334	0.0000	0.0000	0.0000	0.0000	0.0000;
	13	14	0.0009	0.0101	0.1723	600	600	600	1	0	1	-360	360	269.8163	0.0000	-269.8163	0.0000	0.0000	0.0000	0.0000	0.0000;
	14	15	0.0018	0.0217	0.366	600	600	600	1	0	1	-360	360	2.1980	0.0000	-2.1980	0.0000	0.0000	0.0000	0.0000	0.0000;
	15	16	0.0009	0.0094	0.171	600	600	600	1	0	1	-360	360	-317.8020	0.0000	317.8020	0.0000	0.0000	0.0000	0.0000	0.0000;
	16	17	0.0007	0.0089	0.1342	600	600	600	1	0	1	-360	360	243.9440	0.0000	-243.9440	0.0000	0.0000	0.0000	0.0000	0.0000;
	16	19	0.0016	0.0195	0.304	600	600	2500	1	0	1	-360	360	-480.0000	0.0000	480.0000	0.0000	0.0000	0.0000	0.0000	0.0000;
	16	21	0.0008	0.0135	0.2548	600	600	600	1	0	1	-360	360	-352.2850	0.0000	352.2850	0.0000	0.0000	0.0000	0.0000	0.0000;
	16	24	0.0003	0.0059	0.068	600	600	600	1	0	1	-360	360	-58.4610	0.0000	58.4610	0.0000	0.0000	0.0000	0.0000	0.0000;
	17	18	0.0007	0.0082	0.1319	600	600	600	1	0	1	-360	360	162.2409	0.0000	-162.2409	0.0000	0.0000	0.0000	0.0000	0.0000;
	17	27	0.0013	0.0173	0.3216	600	600	600	1	0	1	-360	360	81.7031	0.0000	-81.7031	0.0000	0.0000	0.0000	0.0000	0.0000;
	19	20	0.0007	0.0138	0	900	900	2500	1	0	1	-360	360	172.0000	0.0000	-172.0000	0.0000	0.0000	0.0000	0.0000	0.0000;
	19	33	0.0007	0.0142	0	900	900	2500	1	0	1	-360	360	-652.0000	0.0000	652.0000	0.0000	0.0000	0.0000	0.0000	0.0000;
	20	34	0.0009	0.018	0	900	900	2500	1	0	1	-360	360	-508.0000	0.0000	508.0000	0.0000	0.0000	0.0000	0.0000	0.0000;
	21	22	0.0008	0.014	0.2565	900	900	900	1	0	1	-360	360	-626.2850	0.0000	626.2850	0.0000	0.0000	0.0000	0.0000	0.0000;
	22	23	0.0006	0.0096	0.1846	600	600	600	1	0	1	-360	360	34.5610	0.0000	-34.5610	0.0000	0.0000	0.0000	0.0000	0.0000;
	22	35	0	0.0143	0	900	900	2500	1	0	1	-360	360	-660.8460	0.0000	660.8460	0.0000	0.0000	0.0000	0.0000	0.0000;
	23	24	0.0022	0.035	0.361	600	600	600	1	0	1	-360	360	367.0610	0.0000	-367.0610	0.0000	0.0000	0.0000	0.0000	0.0000;
	23	36	0.0005	0.0272	0	900	900	2500	1	0	1	-360	360	-580.0000	0.0000	580.0000	0.0000	0.0000	0.0000	0.0000	0.0000;
	25	26	0.0032	0.0323	0.531	600	600	600	1	0	1	-360	360	166.9509	0.0000	-166.9509	0.0000	0.0000	0.0000	0.0000	0.0000;
	25	37	0.0006	0.0232	0	900	900	2500	1	0	1	-360	360	-564.0000	0.0000	564.0000	0.0000	0.0000	0.0000	0.0000	0.0000;
	26	27	0.0014	0.0147	0.2396	600	600	600	1	0	1	-360	360	199.2969	0.0000	-199.2969	0.0000	0.0000	0.0000	0.0000	0.0000;
	26	28	0.0043	0.0474	0.7802	600	600	600	1	0	1	-360	360	-60.7882	0.0000	60.7882	0.0000	0.0000	0.0000	0.0000	0.0000;
	26	29	0.0057	0.0625	1.029	600	600	600	1	0	1	-360	360	-110.5578	0.0000	110.5578	0.0000	0.0000	0.0000	0.0000	0.0000;
	28	29	0.0014	0.0151	0.249	600	600	600	1	0	1	-360	360	-266.7882	0.0000	266.7882	0.0000	0.0000	0.0000	0.0000	0.0000;
	29	38	0.0008	0.0156	0	1200	1200	2500	1	0	1	-360	360	-660.8460	0.0000	660.8460	0.0000	0.0000	0.0000	0.0000	0.0000;
];

%%-----  OPF Data  -----%%
%% generator cost data
%	1	startup	shutdown	n	x1	y1	...	xn	yn
%	2	startup	shutdown	n	c(n-1)	...	c0
mpc.gencost = [
	2	0	0	3	0.01	0.3	0.2;
	2	0	0	3	0.01	0.3	0.2;
	2	0	0	3	0.01	0.3	0.2;
	2	0	0	3	0.01	0.3	0.2;
	2	0	0	3	0.01	0.3	0.2;
	2	0	0	3	0.01	0.3	0.2;
	2	0	0	3	0.01	0.3	0.2;
	2	0	0	3	0.01	0.3	0.2;
	2	0	0	3	0.01	0.3	0.2;
	2	0	0	3	0.01	0.3	0.2;
];
